obj01
     RDKit          3D

 36 40  0  0  0  0  0  0  0  0999 V2000
   -4.4760    2.5590   14.0880 C   0  0  0  0  0  0  0  0  0  0  0  0
   -4.2190    1.9740   15.2850 N   0  0  0  0  0  0  0  0  0  0  0  0
   -1.6760   -4.8140    8.1530 O   0  0  0  0  0  0  0  0  0  0  0  0
   -3.5530    0.8020   12.8650 C   0  0  0  0  0  0  0  0  0  0  0  0
   -4.1650    2.0170   12.8820 N   0  0  0  0  0  0  0  0  0  0  0  0
   -3.8990   10.7270    9.9470 O   0  0  0  0  0  0  0  0  0  0  0  0
   -3.2780    0.1170   14.0540 C   0  0  0  0  0  0  0  0  0  0  0  0
   -5.1460    3.7900   14.1530 N   0  0  0  0  0  0  0  0  0  0  0  0
   -3.6330    0.7470   15.2510 C   0  0  0  0  0  0  0  0  0  0  0  0
   -3.3020    0.0430    9.2400 N   0  0  0  0  0  0  0  0  0  0  0  0
   -3.2230    0.2880   11.5000 C   0  0  0  0  0  0  0  0  0  0  0  0
    0.0340   -3.5800    9.0240 N   0  0  0  0  0  0  0  0  0  0  0  0
   -3.8010    0.7240   10.3180 C   0  0  0  0  0  0  0  0  0  0  0  0
   -6.7050    6.1780   12.0380 N   0  0  0  0  0  0  0  0  0  0  0  0
   -2.3830   -0.8850    9.6840 C   0  0  0  0  0  0  0  0  0  0  0  0
   -6.0080    5.5270   11.1000 N   0  0  0  0  0  0  0  0  0  0  0  0
   -2.2710   -0.7270   11.1040 C   0  0  0  0  0  0  0  0  0  0  0  0
   -5.6450    8.9490   11.3790 N   0  0  0  0  0  0  0  0  0  0  0  0
   -1.6360   -1.8280    8.9700 C   0  0  0  0  0  0  0  0  0  0  0  0
   -0.7380   -2.6190    9.6910 C   0  0  0  0  0  0  0  0  0  0  0  0
   -0.5620   -2.4450   11.0630 C   0  0  0  0  0  0  0  0  0  0  0  0
   -1.3220   -1.5180   11.7800 C   0  0  0  0  0  0  0  0  0  0  0  0
   -3.6620    0.2860    7.8540 C   0  0  0  0  0  0  0  0  0  0  0  0
   -0.4690   -4.5940    8.2900 C   0  0  0  0  0  0  0  0  0  0  0  0
    0.5990   -5.4210    7.3030 C   0  0  0  0  0  0  0  0  0  0  0  0
    0.4730   -6.8560    6.4250 C   0  0  0  0  0  0  0  0  0  0  0  0
   -5.6340    4.5920   13.1410 C   0  0  0  0  0  0  0  0  0  0  0  0
   -6.5140    5.6570   13.3000 C   0  0  0  0  0  0  0  0  0  0  0  0
   -5.3800    4.5810   11.7560 C   0  0  0  0  0  0  0  0  0  0  0  0
   -7.2090    6.2020   14.5230 C   0  0  0  0  0  0  0  0  0  0  0  0
   -7.5590    7.3020   11.6460 C   0  0  0  0  0  0  0  0  0  0  0  0
   -6.9440    8.6750   12.0060 C   0  0  0  0  0  0  0  0  0  0  0  0
   -5.7610    9.1340    9.9240 C   0  0  0  0  0  0  0  0  0  0  0  0
   -4.4330    9.5870    9.2800 C   0  0  0  0  0  0  0  0  0  0  0  0
   -3.6810   10.5010   11.3360 C   0  0  0  0  0  0  0  0  0  0  0  0
   -5.0040   10.1050   12.0230 C   0  0  0  0  0  0  0  0  0  0  0  0
  1  5  1  0
  1  8  1  0
  1  2  2  0
  2  9  1  0
  4  7  1  0
  4 11  1  0
  4  5  2  0
  6 35  1  0
  7  9  2  0
  8 27  1  0
 10 15  1  0
 10 23  1  0
 11 13  2  0
 11 17  1  0
 12 24  1  0
 10 13  1  0
 14 16  1  0
 14 31  1  0
 15 17  2  0
 15 19  1  0
 16 29  2  0
 17 22  1  0
 18 33  1  0
 18 36  1  0
 19 20  2  0
 12 20  1  0
 20 21  1  0
 21 22  2  0
  3 24  2  0
 24 25  1  0
 25 26  2  0
 27 28  2  0
 27 29  1  0
 14 28  1  0
 28 30  1  0
 31 32  1  0
 18 32  1  0
 33 34  1  0
  6 34  1  0
 35 36  1  0
M  END
$$$$
